ca_results/summer/rts_gmlc_export_13_40_summer_v35_N1_buses.csv
Contingency,Converged,Bus#,Name,Type,Area,Zone,Volt(kV),Volt(pu),Angle(deg),Angle(rad),VoltMin,VoltMax,Violation
LT_101-102_A1,True,101.0,ABEL        ,2.0,1.0,11.0,132.99197387695312,0.9637100100517273,-4.007011413574219,-0.06993551552295685,0.949999988079071,1.0499999523162842,False
LT_101-102_A1,True,102.0,ADAMS       ,2.0,1.0,12.0,133.11204528808594,0.9645799994468689,-6.572082042694092,-0.114704430103302,0.949999988079071,1.0499999523162842,False
LT_101-102_A1,True,103.0,ADLER       ,1.0,1.0,11.0,128.56964111328125,0.9316641092300415,-13.517669677734375,-0.2359277606010437,0.949999988079071,1.0499999523162842,True
LT_101-102_A1,True,104.0,AGRICOLA    ,1.0,1.0,11.0,129.2581024169922,0.9366528987884521,-11.588968276977539,-0.20226557552814484,0.949999988079071,1.0499999523162842,True
LT_101-102_A1,True,105.0,AIKEN       ,1.0,1.0,11.0,131.64901733398438,0.953978419303894,-9.497719764709473,-0.1657664179801941,0.949999988079071,1.0499999523162842,False
LT_101-102_A1,True,106.0,ALBER       ,1.0,1.0,12.0,131.69134521484375,0.9542851448059082,-14.015329360961914,-0.24461355805397034,0.949999988079071,1.0499999523162842,False
LT_101-102_A1,True,107.0,ALDER       ,2.0,1.0,12.0,133.08306884765625,0.9643700122833252,-11.485191345214844,-0.20045433938503265,0.949999988079071,1.0499999523162842,False
LT_101-102_A1,True,108.0,ALGER       ,1.0,1.0,12.0,129.32818603515625,0.9371607303619385,-14.743109703063965,-0.2573157250881195,0.949999988079071,1.0499999523162842,True
LT_101-102_A1,True,109.0,ALI         ,1.0,1.0,13.0,130.58494567871094,0.9462677240371704,-11.696427345275879,-0.20414109528064728,0.949999988079071,1.0499999523162842,True
LT_101-102_A1,True,110.0,ALLEN       ,1.0,1.0,13.0,134.25245666503906,0.9728438854217529,-11.967053413391113,-0.20886440575122833,0.949999988079071,1.0499999523162842,False
LT_101-102_A1,True,111.0,ANNA        ,1.0,1.0,13.0,221.31002807617188,0.9622175097465515,-7.542733192443848,-0.13164548575878143,0.949999988079071,1.0499999523162842,False
LT_101-102_A1,True,112.0,ARCHER      ,1.0,1.0,13.0,224.8844451904297,0.9777584671974182,-5.236690998077393,-0.0913974717259407,0.949999988079071,1.0499999523162842,False
LT_101-102_A1,True,113.0,ARNE        ,3.0,1.0,14.0,225.62770080566406,0.9809899926185608,0.0,0.0,0.949999988079071,1.0499999523162842,False
LT_101-102_A1,True,114.0,ARNOLD      ,2.0,1.0,16.0,221.52427673339844,0.9631490111351013,-9.967297554016113,-0.17396210134029388,0.949999988079071,1.0499999523162842,False
LT_101-102_A1,True,115.0,ARTHUR      ,2.0,1.0,16.0,226.8052978515625,0.9861099720001221,-8.490214347839355,-0.14818213880062103,0.949999988079071,1.0499999523162842,False
LT_101-102_A1,True,116.0,ASSER       ,2.0,1.0,16.0,228.32791137695312,0.9927300214767456,-7.463717460632324,-0.13026639819145203,0.949999988079071,1.0499999523162842,False
LT_101-102_A1,True,117.0,ASTON       ,1.0,1.0,17.0,227.1039276123047,0.9874083995819092,-7.310765743255615,-0.1275968849658966,0.949999988079071,1.0499999523162842,False
LT_101-102_A1,True,118.0,ASTOR       ,2.0,1.0,17.0,225.73963928222656,0.9814767241477966,-7.297192096710205,-0.12735998630523682,0.949999988079071,1.0499999523162842,False
LT_101-102_A1,True,119.0,ATTAR       ,1.0,1.0,15.0,232.1371307373047,1.0092918872833252,-6.196164131164551,-0.10814342647790909,0.949999988079071,1.0499999523162842,False
LT_101-102_A1,True,120.0,ATTILA      ,1.0,1.0,15.0,237.56614685058594,1.0328962802886963,-3.460524320602417,-0.06039752438664436,0.949999988079071,1.0499999523162842,False
LT_101-102_A1,True,121.0,ATTLEE      ,2.0,1.0,17.0,226.38441467285156,0.9842800498008728,-7.426904201507568,-0.1296238899230957,0.949999988079071,1.0499999523162842,False
LT_101-102_A1,True,122.0,AUBREY      ,2.0,1.0,17.0,228.7879638671875,0.9947302937507629,-6.625706195831299,-0.11564034968614578,0.949999988079071,1.0499999523162842,False
LT_101-102_A1,True,123.0,AUSTEN      ,2.0,1.0,15.0,241.49998474121094,1.0499999523162842,-1.391711950302124,-0.024289947003126144,0.949999988079071,1.0499999523162842,False
LT_101-102_A1,True,124.0,AVERY       ,1.0,1.0,16.0,221.68544006347656,0.9638497233390808,-10.277050018310547,-0.1793683022260666,0.949999988079071,1.0499999523162842,False
LT_101-102_A1,True,201.0,BACH        ,2.0,2.0,21.0,131.64234924316406,0.9539300203323364,-36.68101501464844,-0.6402042508125305,0.949999988079071,1.0499999523162842,False
LT_101-102_A1,True,202.0,BACON       ,2.0,2.0,22.0,131.7624053955078,0.954800009727478,-36.85065460205078,-0.6431650519371033,0.949999988079071,1.0499999523162842,False
LT_101-102_A1,True,203.0,BAFFIN      ,1.0,2.0,21.0,128.64785766601562,0.9322308897972107,-27.927236557006836,-0.48742204904556274,0.949999988079071,1.0499999523162842,True
LT_101-102_A1,True,204.0,BAILEY      ,1.0,2.0,21.0,128.8146209716797,0.9334392547607422,-39.42831039428711,-0.6881535649299622,0.949999988079071,1.0499999523162842,True
LT_101-102_A1,True,205.0,BAIN        ,1.0,2.0,21.0,131.75778198242188,0.9547665119171143,-40.33265686035156,-0.7039374113082886,0.949999988079071,1.0499999523162842,False
LT_101-102_A1,True,206.0,BAJER       ,1.0,2.0,22.0,132.30279541015625,0.9587158560752869,-43.265647888183594,-0.7551277279853821,0.949999988079071,1.0499999523162842,False
LT_101-102_A1,True,207.0,BAKER       ,2.0,2.0,22.0,127.18801879882812,0.9216523170471191,-47.28072738647461,-0.825204074382782,0.949999988079071,1.0499999523162842,True
LT_101-102_A1,True,208.0,BALCH       ,1.0,2.0,22.0,125.66401672363281,0.9106088280677795,-47.09543228149414,-0.8219700455665588,0.949999988079071,1.0499999523162842,True
LT_101-102_A1,True,209.0,BALZAC      ,1.0,2.0,23.0,130.81358337402344,0.9479245543479919,-37.34903335571289,-0.6518633961677551,0.949999988079071,1.0499999523162842,True
LT_101-102_A1,True,210.0,BANKS       ,1.0,2.0,23.0,135.5115966796875,0.9819680452346802,-40.78642272949219,-0.7118571400642395,0.949999988079071,1.0499999523162842,False
LT_101-102_A1,True,211.0,BARDEEN     ,1.0,2.0,23.0,226.2122344970703,0.9835314750671387,-32.91387176513672,-0.574455201625824,0.949999988079071,1.0499999523162842,False
LT_101-102_A1,True,212.0,BARKLA      ,1.0,2.0,23.0,229.97242736816406,0.9998801350593567,-33.2792854309082,-0.5808328986167908,0.949999988079071,1.0499999523162842,False
LT_101-102_A1,True,213.0,BARLOW      ,2.0,2.0,24.0,237.25332641601562,1.0315362215042114,-31.59028434753418,-0.5513542890548706,0.949999988079071,1.0499999523162842,False
LT_101-102_A1,True,214.0,BARRY       ,2.0,2.0,26.0,224.4793701171875,0.975997269153595,-28.142885208129883,-0.49118584394454956,0.949999988079071,1.0499999523162842,False
LT_101-102_A1,True,215.0,BARTON      ,2.0,2.0,26.0,231.97259521484375,1.008576512336731,-12.619600296020508,-0.22025349736213684,0.949999988079071,1.0499999523162842,False
LT_101-102_A1,True,216.0,BASOV       ,2.0,2.0,26.0,233.27944946289062,1.0142585039138794,-15.836669921875,-0.27640193700790405,0.949999988079071,1.0499999523162842,False
LT_101-102_A1,True,217.0,BATES       ,1.0,2.0,27.0,238.3133087158203,1.0361448526382446,-10.594367980957031,-0.18490654230117798,0.949999988079071,1.0499999523162842,False
LT_101-102_A1,True,218.0,BAYLE       ,2.0,2.0,27.0,240.69668579101562,1.0465073585510254,-9.69473648071289,-0.16920500993728638,0.949999988079071,1.0499999523162842,False
LT_101-102_A1,True,219.0,BEDE        ,1.0,2.0,25.0,234.44398498535156,1.0193216800689697,-21.07942008972168,-0.3679051697254181,0.949999988079071,1.0499999523162842,False
LT_101-102_A1,True,220.0,BEETHOVEN   ,1.0,2.0,25.0,238.5428009033203,1.0371426343917847,-23.828563690185547,-0.4158867597579956,0.949999988079071,1.0499999523162842,False
LT_101-102_A1,True,221.0,BEHRING     ,2.0,2.0,27.0,239.84629821777344,1.0428099632263184,-9.198190689086914,-0.1605386584997177,0.949999988079071,1.0499999523162842,False
LT_101-102_A1,True,222.0,BELL        ,1.0,2.0,27.0,241.03359985351562,1.0479722023010254,-9.802278518676758,-0.17108197510242462,0.949999988079071,1.0499999523162842,False
LT_101-102_A1,True,223.0,BLOCH       ,2.0,2.0,25.0,241.49998474121094,1.0499999523162842,-24.659137725830078,-0.43038299679756165,0.949999988079071,1.0499999523162842,False
LT_101-102_A1,True,224.0,BORDET      ,1.0,2.0,26.0,222.22640991210938,0.9662017822265625,-18.082948684692383,-0.31560689210891724,0.949999988079071,1.0499999523162842,False
LT_101-102_A1,True,301.0,CABELL      ,2.0,3.0,31.0,132.5862579345703,0.9607699513435364,-52.57069396972656,-0.9175313711166382,0.949999988079071,1.0499999523162842,False
LT_101-102_A1,True,302.0,CABOT       ,2.0,3.0,32.0,132.75048828125,0.9619600176811218,-52.682945251464844,-0.9194905161857605,0.949999988079071,1.0499999523162842,False
LT_101-102_A1,True,303.0,CAESAR      ,1.0,3.0,31.0,127.73590087890625,0.9256224632263184,-49.95731735229492,-0.8719193935394287,0.949999988079071,1.0499999523162842,True
LT_101-102_A1,True,304.0,CAINE       ,1.0,3.0,31.0,128.5306396484375,0.9313814640045166,-53.98508071899414,-0.9422170519828796,0.949999988079071,1.0499999523162842,True
LT_101-102_A1,True,305.0,CALVIN      ,1.0,3.0,31.0,131.38739013671875,0.9520825743675232,-54.34857177734375,-0.9485611915588379,0.949999988079071,1.0499999523162842,False
LT_101-102_A1,True,306.0,CAMUS       ,1.0,3.0,32.0,131.33770751953125,0.9517225623130798,-56.16608428955078,-0.9802827835083008,0.949999988079071,1.0499999523162842,False
LT_101-102_A1,True,307.0,CAREW       ,2.0,3.0,32.0,123.30370330810547,0.8935050964355469,-64.60558319091797,-1.127579689025879,0.949999988079071,1.0499999523162842,True
LT_101-102_A1,True,308.0,CARREL      ,1.0,3.0,32.0,122.68148803710938,0.8889963030815125,-62.25885009765625,-1.0866215229034424,0.949999988079071,1.0499999523162842,True
LT_101-102_A1,True,309.0,CARTER      ,1.0,3.0,33.0,128.69081115722656,0.9325421452522278,-51.49662780761719,-0.898785412311554,0.949999988079071,1.0499999523162842,True
LT_101-102_A1,True,310.0,CARUSO      ,1.0,3.0,33.0,133.00323486328125,0.96379154920578,-53.42906951904297,-0.9325128793716431,0.949999988079071,1.0499999523162842,False
LT_101-102_A1,True,311.0,CARY        ,1.0,3.0,33.0,219.8094940185547,0.9556934833526611,-45.92952346801758,-0.80162113904953,0.949999988079071,1.0499999523162842,False
LT_101-102_A1,True,312.0,CAXTON      ,1.0,3.0,33.0,220.17848205566406,0.9572977423667908,-44.00015640258789,-0.7679473161697388,0.949999988079071,1.0499999523162842,False
LT_101-102_A1,True,313.0,CECIL       ,2.0,3.0,34.0,229.1282958984375,0.996209979057312,-41.12965393066406,-0.7178476452827454,0.949999988079071,1.0499999523162842,False
LT_101-102_A1,True,314.0,CHAIN       ,2.0,3.0,36.0,217.29844665527344,0.9447758793830872,-43.84099197387695,-0.7651693820953369,0.949999988079071,1.0499999523162842,True
LT_101-102_A1,True,315.0,CHASE       ,2.0,3.0,36.0,221.3607635498047,0.9624381065368652,-35.44996643066406,-0.6187184453010559,0.949999988079071,1.0499999523162842,False
LT_101-102_A1,True,316.0,CHIFA       ,2.0,3.0,36.0,220.61830139160156,0.9592099785804749,-35.67243576049805,-0.6226012110710144,0.949999988079071,1.0499999523162842,False
LT_101-102_A1,True,317.0,CHUHSI      ,1.0,3.0,37.0,221.904052734375,0.964800238609314,-33.06325149536133,-0.5770623683929443,0.949999988079071,1.0499999523162842,False
LT_101-102_A1,True,318.0,CLARK       ,2.0,3.0,37.0,222.44679260253906,0.9671599864959717,-32.03171157836914,-0.5590586066246033,0.949999988079071,1.0499999523162842,False
LT_101-102_A1,True,319.0,CLAY        ,1.0,3.0,35.0,220.16571044921875,0.9572422504425049,-34.97291946411133,-0.6103923916816711,0.949999988079071,1.0499999523162842,False
LT_101-102_A1,True,320.0,CLIVE       ,1.0,3.0,35.0,221.5780487060547,0.9633828401565552,-32.73933029174805,-0.5714089274406433,0.949999988079071,1.0499999523162842,False
LT_101-102_A1,True,321.0,COBB        ,2.0,3.0,37.0,222.63999938964844,0.9679999947547913,-31.52725601196289,-0.550254225730896,0.949999988079071,1.0499999523162842,False
LT_101-102_A1,True,322.0,COLE        ,2.0,3.0,37.0,221.94309997558594,0.9649699926376343,-30.227903366088867,-0.5275762677192688,0.949999988079071,1.0499999523162842,False
LT_101-102_A1,True,323.0,COMTE       ,2.0,3.0,35.0,223.14138793945312,0.9701799750328064,-30.89935874938965,-0.5392953753471375,0.949999988079071,1.0499999523162842,False
LT_101-102_A1,True,324.0,CURIE       ,1.0,3.0,36.0,215.43020629882812,0.9366530776023865,-40.818389892578125,-0.7124150395393372,0.949999988079071,1.0499999523162842,True
LT_101-102_A1,True,325.0,CURTISS     ,1.0,3.0,35.0,221.2965850830078,0.9621590375900269,-28.978822708129883,-0.5057756900787354,0.949999988079071,1.0499999523162842,False
LT_101-103_A2,True,101.0,ABEL        ,2.0,1.0,11.0,132.9919891357422,0.9637100696563721,-1.449756145477295,-0.025303009897470474,0.949999988079071,1.0499999523162842,False
LT_101-103_A2,True,102.0,ADAMS       ,2.0,1.0,12.0,133.11204528808594,0.9645799994468689,-1.9578806161880493,-0.0341714508831501,0.949999988079071,1.0499999523162842,False
LT_101-103_A2,True,103.0,ADLER       ,1.0,1.0,11.0,127.18036651611328,0.921596884727478,-16.955080032348633,-0.29592186212539673,0.949999988079071,1.0499999523162842,True
LT_101-103_A2,True,104.0,AGRICOLA    ,1.0,1.0,11.0,128.5796356201172,0.9317365288734436,-9.587271690368652,-0.16732940077781677,0.949999988079071,1.0499999523162842,True
LT_101-103_A2,True,105.0,AIKEN       ,1.0,1.0,11.0,131.2603759765625,0.9511621594429016,-7.785597801208496,-0.13588427007198334,0.949999988079071,1.0499999523162842,False
LT_101-103_A2,True,106.0,ALBER       ,1.0,1.0,12.0,131.05516052246094,0.9496750235557556,-12.299031257629395,-0.21465851366519928,0.949999988079071,1.0499999523162842,True
LT_101-103_A2,True,107.0,ALDER       ,2.0,1.0,12.0,133.08306884765625,0.9643700122833252,-11.399057388305664,-0.19895102083683014,0.949999988079071,1.0499999523162842,False
LT_101-103_A2,True,108.0,ALGER       ,1.0,1.0,12.0,129.10098266601562,0.9355143308639526,-14.554364204406738,-0.2540214955806732,0.949999988079071,1.0499999523162842,True
LT_101-103_A2,True,109.0,ALI         ,1.0,1.0,13.0,130.02638244628906,0.9422202110290527,-11.851200103759766,-0.20684239268302917,0.949999988079071,1.0499999523162842,True
LT_101-103_A2,True,110.0,ALLEN       ,1.0,1.0,13.0,133.7790069580078,0.9694130420684814,-11.12110424041748,-0.1940998136997223,0.949999988079071,1.0499999523162842,False
LT_101-103_A2,True,111.0,ANNA        ,1.0,1.0,13.0,220.99400329589844,0.9608435034751892,-7.509344577789307,-0.13106274604797363,0.949999988079071,1.0499999523162842,False
LT_101-103_A2,True,112.0,ARCHER      ,1.0,1.0,13.0,224.6355743408203,0.9766764044761658,-5.126560688018799,-0.08947533369064331,0.949999988079071,1.0499999523162842,False
LT_101-103_A2,True,113.0,ARNE        ,3.0,1.0,14.0,225.62770080566406,0.9809899926185608,0.0,0.0,0.949999988079071,1.0499999523162842,False
LT_101-103_A2,True,114.0,ARNOLD      ,2.0,1.0,16.0,221.3084716796875,0.9622107148170471,-10.252639770507812,-0.1789422631263733,0.949999988079071,1.0499999523162842,False
LT_101-103_A2,True,115.0,ARTHUR      ,2.0,1.0,16.0,226.80528259277344,0.9861099123954773,-9.415002822875977,-0.16432273387908936,0.949999988079071,1.0499999523162842,False
LT_101-103_A2,True,116.0,ASSER       ,2.0,1.0,16.0,228.32791137695312,0.9927300214767456,-8.168432235717773,-0.14256598055362701,0.949999988079071,1.0499999523162842,False
LT_101-103_A2,True,117.0,ASTON       ,1.0,1.0,17.0,227.10580444335938,0.9874165654182434,-8.074140548706055,-0.14092028141021729,0.949999988079071,1.0499999523162842,False
LT_101-103_A2,True,118.0,ASTOR       ,2.0,1.0,17.0,225.73899841308594,0.9814739227294922,-8.088241577148438,-0.14116640388965607,0.949999988079071,1.0499999523162842,False
LT_101-103_A2,True,119.0,ATTAR       ,1.0,1.0,15.0,232.0928497314453,1.0090993642807007,-6.712129592895508,-0.11714871972799301,0.949999988079071,1.0499999523162842,False
LT_101-103_A2,True,120.0,ATTILA      ,1.0,1.0,15.0,237.5281982421875,1.032731294631958,-3.8179609775543213,-0.06663596630096436,0.949999988079071,1.0499999523162842,False
LT_101-103_A2,True,121.0,ATTLEE      ,2.0,1.0,17.0,226.3843994140625,0.984279990196228,-8.24365234375,-0.14387883245944977,0.949999988079071,1.0499999523162842,False
LT_101-103_A2,True,122.0,AUBREY      ,2.0,1.0,17.0,228.7885284423828,0.9947327375411987,-7.421440124511719,-0.12952852249145508,0.949999988079071,1.0499999523162842,False
LT_101-103_A2,True,123.0,AUSTEN      ,2.0,1.0,15.0,241.49998474121094,1.0499999523162842,-1.665515661239624,-0.02906872145831585,0.949999988079071,1.0499999523162842,False
LT_101-103_A2,True,124.0,AVERY       ,1.0,1.0,16.0,220.30340576171875,0.9578409194946289,-12.09529972076416,-0.21110272407531738,0.949999988079071,1.0499999523162842,False
LT_101-103_A2,True,201.0,BACH        ,2.0,2.0,21.0,131.64234924316406,0.9539300203323364,-36.875179290771484,-0.6435930728912354,0.949999988079071,1.0499999523162842,False
LT_101-103_A2,True,202.0,BACON       ,2.0,2.0,22.0,131.7624053955078,0.954800009727478,-37.04643630981445,-0.6465820670127869,0.949999988079071,1.0499999523162842,False
LT_101-103_A2,True,203.0,BAFFIN      ,1.0,2.0,21.0,128.58587646484375,0.9317817687988281,-28.055500030517578,-0.48966068029403687,0.949999988079071,1.0499999523162842,True
LT_101-103_A2,True,204.0,BAILEY      ,1.0,2.0,21.0,128.7965850830078,0.9333085417747498,-39.62773132324219,-0.6916341781616211,0.949999988079071,1.0499999523162842,True
LT_101-103_A2,True,205.0,BAIN        ,1.0,2.0,21.0,131.7508087158203,0.9547160267829895,-40.53621292114258,-0.7074901461601257,0.949999988079071,1.0499999523162842,False
LT_101-103_A2,True,206.0,BAJER       ,1.0,2.0,22.0,132.2921600341797,0.9586388468742371,-43.47491455078125,-0.7587801218032837,0.949999988079071,1.0499999523162842,False
LT_101-103_A2,True,207.0,BAKER       ,2.0,2.0,22.0,127.16349029541016,0.9214745759963989,-47.491058349609375,-0.8288750648498535,0.949999988079071,1.0499999523162842,True
LT_101-103_A2,True,208.0,BALCH       ,1.0,2.0,22.0,125.63922119140625,0.9104291200637817,-47.30569076538086,-0.8256397843360901,0.949999988079071,1.0499999523162842,True
LT_101-103_A2,True,209.0,BALZAC      ,1.0,2.0,23.0,130.78160095214844,0.9476928114891052,-37.550376892089844,-0.6553775072097778,0.949999988079071,1.0499999523162842,True
LT_101-103_A2,True,210.0,BANKS       ,1.0,2.0,23.0,135.4991455078125,0.981877863407135,-40.99928665161133,-0.7155722975730896,0.949999988079071,1.0499999523162842,False
LT_101-103_A2,True,211.0,BARDEEN     ,1.0,2.0,23.0,226.18592834472656,0.9834170937538147,-33.127376556396484,-0.5781815648078918,0.949999988079071,1.0499999523162842,False
LT_101-103_A2,True,212.0,BARKLA      ,1.0,2.0,23.0,229.9627685546875,0.99983811378479,-33.50422668457031,-0.5847588777542114,0.949999988079071,1.0499999523162842,False
LT_101-103_A2,True,213.0,BARLOW      ,2.0,2.0,24.0,237.24354553222656,1.0314936637878418,-31.81846809387207,-0.5553368330001831,0.949999988079071,1.0499999523162842,False
LT_101-103_A2,True,214.0,BARRY       ,2.0,2.0,26.0,224.44529724121094,0.9758490920066833,-28.34937858581543,-0.49478983879089355,0.949999988079071,1.0499999523162842,False
LT_101-103_A2,True,215.0,BARTON      ,2.0,2.0,26.0,231.93467712402344,1.0084116458892822,-12.786429405212402,-0.22316521406173706,0.949999988079071,1.0499999523162842,False
LT_101-103_A2,True,216.0,BASOV       ,2.0,2.0,26.0,233.24679565429688,1.0141165256500244,-16.031660079956055,-0.27980515360832214,0.949999988079071,1.0499999523162842,False
LT_101-103_A2,True,217.0,BATES       ,1.0,2.0,27.0,238.30755615234375,1.036119818687439,-10.795768737792969,-0.18842163681983948,0.949999988079071,1.0499999523162842,False
LT_101-103_A2,True,218.0,BAYLE       ,2.0,2.0,27.0,240.69398498535156,1.0464955568313599,-9.887657165527344,-0.17257212102413177,0.949999988079071,1.0499999523162842,False
LT_101-103_A2,True,219.0,BEDE        ,1.0,2.0,25.0,234.4143524169922,1.0191928148269653,-21.302906036376953,-0.37180572748184204,0.949999988079071,1.0499999523162842,False
LT_101-103_A2,True,220.0,BEETHOVEN   ,1.0,2.0,25.0,238.53050231933594,1.0370891094207764,-24.075485229492188,-0.4201963543891907,0.949999988079071,1.0499999523162842,False
LT_101-103_A2,True,221.0,BEHRING     ,2.0,2.0,27.0,239.84629821777344,1.0428099632263184,-9.383321762084961,-0.16376981139183044,0.949999988079071,1.0499999523162842,False
LT_101-103_A2,True,222.0,BELL        ,1.0,2.0,27.0,241.03094482421875,1.047960638999939,-9.99377155303955,-0.1744241565465927,0.949999988079071,1.0499999523162842,False
LT_101-103_A2,True,223.0,BLOCH       ,2.0,2.0,25.0,241.49998474121094,1.0499999523162842,-24.918384552001953,-0.4349077045917511,0.949999988079071,1.0499999523162842,False
LT_101-103_A2,True,224.0,BORDET      ,1.0,2.0,26.0,222.17771911621094,0.9659900665283203,-18.234230041503906,-0.3182472288608551,0.949999988079071,1.0499999523162842,False
LT_101-103_A2,True,301.0,CABELL      ,2.0,3.0,31.0,132.5862579345703,0.9607700109481812,-53.106224060058594,-0.9268781542778015,0.949999988079071,1.0499999523162842,False
LT_101-103_A2,True,302.0,CABOT       ,2.0,3.0,32.0,132.75048828125,0.9619600176811218,-53.21892547607422,-0.9288451671600342,0.949999988079071,1.0499999523162842,False
LT_101-103_A2,True,303.0,CAESAR      ,1.0,3.0,31.0,127.7318344116211,0.9255930185317993,-50.477081298828125,-0.8809909820556641,0.949999988079071,1.0499999523162842,True
LT_101-103_A2,True,304.0,CAINE       ,1.0,3.0,31.0,128.53038024902344,0.9313796162605286,-54.5224609375,-0.9515961408615112,0.949999988079071,1.0499999523162842,True
LT_101-103_A2,True,305.0,CALVIN      ,1.0,3.0,31.0,131.38812255859375,0.9520878195762634,-54.88716125488281,-0.95796138048172,0.949999988079071,1.0499999523162842,False
LT_101-103_A2,True,306.0,CAMUS       ,1.0,3.0,32.0,131.33883666992188,0.9517306685447693,-56.706443786621094,-0.9897137880325317,0.949999988079071,1.0499999523162842,False
LT_101-103_A2,True,307.0,CAREW       ,2.0,3.0,32.0,123.3042221069336,0.8935088515281677,-65.14568328857422,-1.1370062828063965,0.949999988079071,1.0499999523162842,True
LT_101-103_A2,True,308.0,CARREL      ,1.0,3.0,32.0,122.68199920654297,0.8889999985694885,-62.79896545410156,-1.096048355102539,0.949999988079071,1.0499999523162842,True
LT_101-103_A2,True,309.0,CARTER      ,1.0,3.0,33.0,128.69029235839844,0.9325383901596069,-52.0351676940918,-0.9081847071647644,0.949999988079071,1.0499999523162842,True
LT_101-103_A2,True,310.0,CARUSO      ,1.0,3.0,33.0,133.00479125976562,0.9638028144836426,-53.970855712890625,-0.9419687986373901,0.949999988079071,1.0499999523162842,False
LT_101-103_A2,True,311.0,CARY        ,1.0,3.0,33.0,219.80767822265625,0.955685555934906,-46.467227935791016,-0.8110058307647705,0.949999988079071,1.0499999523162842,False
LT_101-103_A2,True,312.0,CAXTON      ,1.0,3.0,33.0,220.18783569335938,0.9573383927345276,-44.55180358886719,-0.7775753736495972,0.949999988079071,1.0499999523162842,False
LT_101-103_A2,True,313.0,CECIL       ,2.0,3.0,34.0,229.1282958984375,0.996209979057312,-41.68130111694336,-0.7274757027626038,0.949999988079071,1.0499999523162842,False
LT_101-103_A2,True,314.0,CHAIN       ,2.0,3.0,36.0,217.292236328125,0.9447488784790039,-44.363277435302734,-0.7742850184440613,0.949999988079071,1.0499999523162842,True
LT_101-103_A2,True,315.0,CHASE       ,2.0,3.0,36.0,221.3555450439453,0.9624153971672058,-35.938987731933594,-0.6272534728050232,0.949999988079071,1.0499999523162842,False
LT_101-103_A2,True,316.0,CHIFA       ,2.0,3.0,36.0,220.61830139160156,0.9592099785804749,-36.17292404174805,-0.6313363909721375,0.949999988079071,1.0499999523162842,False
LT_101-103_A2,True,317.0,CHUHSI      ,1.0,3.0,37.0,221.90072631835938,0.9647857546806335,-33.53446960449219,-0.5852867364883423,0.949999988079071,1.0499999523162842,False
LT_101-103_A2,True,318.0,CLARK       ,2.0,3.0,37.0,222.44679260253906,0.9671599864959717,-32.4875602722168,-0.5670146942138672,0.949999988079071,1.0499999523162842,False
LT_101-103_A2,True,319.0,CLAY        ,1.0,3.0,35.0,220.17123413085938,0.9572662115097046,-35.50654983520508,-0.6197059750556946,0.949999988079071,1.0499999523162842,False
LT_101-103_A2,True,320.0,CLIVE       ,1.0,3.0,35.0,221.58323669433594,0.9634053707122803,-33.30173873901367,-0.581224799156189,0.949999988079071,1.0499999523162842,False
LT_101-103_A2,True,321.0,COBB        ,2.0,3.0,37.0,222.6400146484375,0.968000054359436,-31.99479866027832,-0.5584143996238708,0.949999988079071,1.0499999523162842,False
LT_101-103_A2,True,322.0,COLE        ,2.0,3.0,37.0,221.943115234375,0.964970052242279,-30.696922302246094,-0.5357621908187866,0.949999988079071,1.0499999523162842,False
LT_101-103_A2,True,323.0,COMTE       ,2.0,3.0,35.0,223.14138793945312,0.9701799750328064,-31.477375030517578,-0.5493836402893066,0.949999988079071,1.0499999523162842,False
LT_101-103_A2,True,324.0,CURIE       ,1.0,3.0,36.0,215.41452026367188,0.9365848898887634,-41.318782806396484,-0.7211485505104065,0.949999988079071,1.0499999523162842,True
LT_101-103_A2,True,325.0,CURTISS     ,1.0,3.0,35.0,221.33384704589844,0.9623211026191711,-29.575057983398438,-0.5161819458007812,0.949999988079071,1.0499999523162842,False
LT_101-105_A3,True,101.0,ABEL        ,2.0,1.0,11.0,132.9919891357422,0.9637100696563721,0.10016003996133804,0.0017481219256296754,0.949999988079071,1.0499999523162842,False
LT_101-105_A3,True,102.0,ADAMS       ,2.0,1.0,12.0,133.11204528808594,0.9645799994468689,-0.6354872584342957,-0.011091341264545918,0.949999988079071,1.0499999523162842,False
LT_101-105_A3,True,103.0,ADLER       ,1.0,1.0,11.0,127.89490509033203,0.9267746806144714,-12.254912376403809,-0.2138884961605072,0.949999988079071,1.0499999523162842,True
LT_101-105_A3,True,104.0,AGRICOLA    ,1.0,1.0,11.0,128.4601593017578,0.930870771408081,-8.529589653015137,-0.1488693654537201,0.949999988079071,1.0499999523162842,True
LT_101-105_A3,True,105.0,AIKEN       ,1.0,1.0,11.0,129.9290313720703,0.9415146708488464,-16.535701751708984,-0.288602352142334,0.949999988079071,1.0499999523162842,True
LT_101-105_A3,True,106.0,ALBER       ,1.0,1.0,12.0,130.56060791015625,0.9460914134979248,-13.696393966674805,-0.2390470951795578,0.949999988079071,1.0499999523162842,True
LT_101-105_A3,True,107.0,ALDER       ,2.0,1.0,12.0,133.08306884765625,0.9643700122833252,-11.748297691345215,-0.2050464004278183,0.949999988079071,1.0499999523162842,False
LT_101-105_A3,True,108.0,ALGER       ,1.0,1.0,12.0,129.01974487304688,0.9349256753921509,-15.059402465820312,-0.2628360688686371,0.949999988079071,1.0499999523162842,True
LT_101-105_A3,True,109.0,ALI         ,1.0,1.0,13.0,129.90220642089844,0.9413203597068787,-11.01220989227295,-0.19219925999641418,0.949999988079071,1.0499999523162842,True
LT_101-105_A3,True,110.0,ALLEN       ,1.0,1.0,13.0,133.58851623535156,0.9680327773094177,-13.335260391235352,-0.23274412751197815,0.949999988079071,1.0499999523162842,False
LT_101-105_A3,True,111.0,ANNA        ,1.0,1.0,13.0,220.7194061279297,0.9596496224403381,-7.643766403198242,-0.13340884447097778,0.949999988079071,1.0499999523162842,False
LT_101-105_A3,True,112.0,ARCHER      ,1.0,1.0,13.0,224.27430725097656,0.9751057028770447,-5.353917121887207,-0.09344344586133957,0.949999988079071,1.0499999523162842,False
LT_101-105_A3,True,113.0,ARNE        ,3.0,1.0,14.0,225.62770080566406,0.9809899926185608,0.0,0.0,0.949999988079071,1.0499999523162842,False
LT_101-105_A3,True,114.0,ARNOLD      ,2.0,1.0,16.0,221.18218994140625,0.961661696434021,-9.947484016418457,-0.17361629009246826,0.949999988079071,1.0499999523162842,False
LT_101-105_A3,True,115.0,ARTHUR      ,2.0,1.0,16.0,226.8052978515625,0.9861099720001221,-8.19951343536377,-0.14310845732688904,0.949999988079071,1.0499999523162842,False
LT_101-105_A3,True,116.0,ASSER       ,2.0,1.0,16.0,228.32791137695312,0.9927300214767456,-7.260037899017334,-0.12671151757240295,0.949999988079071,1.0499999523162842,False
LT_101-105_A3,True,117.0,ASTON       ,1.0,1.0,17.0,227.1031036376953,0.9874048233032227,-7.083588123321533,-0.12363189458847046,0.949999988079071,1.0499999523162842,False
LT_101-105_A3,True,118.0,ASTOR       ,2.0,1.0,17.0,225.7398681640625,0.981477677822113,-7.058928489685059,-0.12320150434970856,0.949999988079071,1.0499999523162842,False
LT_101-105_A3,True,119.0,ATTAR       ,1.0,1.0,15.0,232.15188598632812,1.0093560218811035,-6.058705806732178,-0.10574432462453842,0.949999988079071,1.0499999523162842,False
LT_101-105_A3,True,120.0,ATTILA      ,1.0,1.0,15.0,237.57891845703125,1.032951831817627,-3.3786604404449463,-0.05896873027086258,0.949999988079071,1.0499999523162842,False
LT_101-105_A3,True,121.0,ATTLEE      ,2.0,1.0,17.0,226.38441467285156,0.9842800498008728,-7.178347110748291,-0.12528574466705322,0.949999988079071,1.0499999523162842,False
LT_101-105_A3,True,122.0,AUBREY      ,2.0,1.0,17.0,228.78770446777344,0.9947291612625122,-6.385566234588623,-0.11144911497831345,0.949999988079071,1.0499999523162842,False
LT_101-105_A3,True,123.0,AUSTEN      ,2.0,1.0,15.0,241.49998474121094,1.0499999523162842,-1.3391907215118408,-0.023373279720544815,0.949999988079071,1.0499999523162842,False
LT_101-105_A3,True,124.0,AVERY       ,1.0,1.0,16.0,221.42117309570312,0.9627007246017456,-9.613974571228027,-0.16779544949531555,0.949999988079071,1.0499999523162842,False
LT_101-105_A3,True,201.0,BACH        ,2.0,2.0,21.0,131.64234924316406,0.9539300799369812,-36.68427658081055,-0.640261173248291,0.949999988079071,1.0499999523162842,False
LT_101-105_A3,True,202.0,BACON       ,2.0,2.0,22.0,131.7624053955078,0.954800009727478,-36.85271453857422,-0.6432009935379028,0.949999988079071,1.0499999523162842,False
LT_101-105_A3,True,203.0,BAFFIN      ,1.0,2.0,21.0,128.69407653808594,0.9325658082962036,-27.97983741760254,-0.4883401095867157,0.949999988079071,1.0499999523162842,True
LT_101-105_A3,True,204.0,BAILEY      ,1.0,2.0,21.0,128.82627868652344,0.9335237145423889,-39.427433013916016,-0.6881383061408997,0.949999988079071,1.0499999523162842,True
LT_101-105_A3,True,205.0,BAIN        ,1.0,2.0,21.0,131.7611541748047,0.9547909498214722,-40.32870864868164,-0.7038685083389282,0.949999988079071,1.0499999523162842,False
LT_101-105_A3,True,206.0,BAJER       ,1.0,2.0,22.0,132.3077850341797,0.9587520956993103,-43.25741958618164,-0.7549841403961182,0.949999988079071,1.0499999523162842,False
LT_101-105_A3,True,207.0,BAKER       ,2.0,2.0,22.0,127.20256805419922,0.9217577576637268,-47.27192306518555,-0.825050413608551,0.949999988079071,1.0499999523162842,True
LT_101-105_A3,True,208.0,BALCH       ,1.0,2.0,22.0,125.6787109375,0.9107152819633484,-47.08666229248047,-0.8218170404434204,0.949999988079071,1.0499999523162842,True
LT_101-105_A3,True,209.0,BALZAC      ,1.0,2.0,23.0,130.83421325683594,0.9480740427970886,-37.3464469909668,-0.6518182158470154,0.949999988079071,1.0499999523162842,True
LT_101-105_A3,True,210.0,BANKS       ,1.0,2.0,23.0,135.51718139648438,0.9820085167884827,-40.77530288696289,-0.7116630673408508,0.949999988079071,1.0499999523162842,False
LT_101-105_A3,True,211.0,BARDEEN     ,1.0,2.0,23.0,226.21914672851562,0.9835615158081055,-32.89912033081055,-0.5741977691650391,0.949999988079071,1.0499999523162842,False
LT_101-105_A3,True,212.0,BARKLA      ,1.0,2.0,23.0,229.97662353515625,0.999898374080658,-33.2612190246582,-0.580517590045929,0.949999988079071,1.0499999523162842,False
LT_101-105_A3,True,213.0,BARLOW      ,2.0,2.0,24.0,237.2554473876953,1.0315454006195068,-31.569149017333984,-0.5509853959083557,0.949999988079071,1.0499999523162842,False
LT_101-105_A3,True,214.0,BARRY       ,2.0,2.0,26.0,224.48291015625,0.976012647151947,-28.125585556030273,-0.49088388681411743,0.949999988079071,1.0499999523162842,False
LT_101-105_A3,True,215.0,BARTON      ,2.0,2.0,26.0,231.9751739501953,1.0085877180099487,-12.60582160949707,-0.22001302242279053,0.949999988079071,1.0499999523162842,False
LT_101-105_A3,True,216.0,BASOV       ,2.0,2.0,26.0,233.28195190429688,1.0142693519592285,-15.81589412689209,-0.27603933215141296,0.949999988079071,1.0499999523162842,False
LT_101-105_A3,True,217.0,BATES       ,1.0,2.0,27.0,238.3111572265625,1.0361354351043701,-10.569701194763184,-0.18447601795196533,0.949999988079071,1.0499999523162842,False
LT_101-105_A3,True,218.0,BAYLE       ,2.0,2.0,27.0,240.69564819335938,1.0465028285980225,-9.672799110412598,-0.16882213950157166,0.949999988079071,1.0499999523162842,False
LT_101-105_A3,True,219.0,BEDE        ,1.0,2.0,25.0,234.44821166992188,1.0193400382995605,-21.051321029663086,-0.3674147427082062,0.949999988079071,1.0499999523162842,False
LT_101-105_A3,True,220.0,BEETHOVEN   ,1.0,2.0,25.0,238.5447540283203,1.0371510982513428,-23.7943172454834,-0.415289044380188,0.949999988079071,1.0499999523162842,False
LT_101-105_A3,True,221.0,BEHRING     ,2.0,2.0,27.0,239.84629821777344,1.0428099632263184,-9.178767204284668,-0.16019965708255768,0.949999988079071,1.0499999523162842,False
LT_101-105_A3,True,222.0,BELL        ,1.0,2.0,27.0,241.03286743164062,1.0479689836502075,-9.780799865722656,-0.170707106590271,0.949999988079071,1.0499999523162842,False
LT_101-105_A3,True,223.0,BLOCH       ,2.0,2.0,25.0,241.49998474121094,1.0499999523162842,-24.621633529663086,-0.4297284185886383,0.949999988079071,1.0499999523162842,False
LT_101-105_A3,True,224.0,BORDET      ,1.0,2.0,26.0,222.23406982421875,0.9662351012229919,-18.094926834106445,-0.3158159554004669,0.949999988079071,1.0499999523162842,False
LT_101-105_A3,True,301.0,CABELL      ,2.0,3.0,31.0,132.5862579345703,0.9607700109481812,-52.42871856689453,-0.9150534272193909,0.949999988079071,1.0499999523162842,False
LT_101-105_A3,True,302.0,CABOT       ,2.0,3.0,32.0,132.75048828125,0.9619600176811218,-52.540794372558594,-0.9170095324516296,0.949999988079071,1.0499999523162842,False
LT_101-105_A3,True,303.0,CAESAR      ,1.0,3.0,31.0,127.7374267578125,0.9256335496902466,-49.82130432128906,-0.8695455193519592,0.949999988079071,1.0499999523162842,True
LT_101-105_A3,True,304.0,CAINE       ,1.0,3.0,31.0,128.53074645996094,0.9313821792602539,-53.84239959716797,-0.9397268295288086,0.949999988079071,1.0499999523162842,True
LT_101-105_A3,True,305.0,CALVIN      ,1.0,3.0,31.0,131.38711547851562,0.9520805478096008,-54.2054328918457,-0.9460629820823669,0.949999988079071,1.0499999523162842,False
LT_101-105_A3,True,306.0,CAMUS       ,1.0,3.0,32.0,131.3372802734375,0.9517194032669067,-56.022281646728516,-0.9777729511260986,0.949999988079071,1.0499999523162842,False
...
LT_103-124_A7,False,,,,,,,,,,,,
LT_104-109_A8,True,101.0,ABEL        ,2.0,1.0,11.0,132.99197387695312,0.9637100100517273,-4.705957412719727,-0.0821344256401062,0.949999988079071,1.0499999523162842,False
LT_104-109_A8,True,102.0,ADAMS       ,2.0,1.0,12.0,133.11204528808594,0.9645799994468689,-4.816616058349609,-0.08406578004360199,0.949999988079071,1.0499999523162842,False
LT_104-109_A8,True,103.0,ADLER       ,1.0,1.0,11.0,128.81459045410156,0.9334390163421631,-13.678837776184082,-0.23874066770076752,0.949999988079071,1.0499999523162842,True
LT_104-109_A8,True,104.0,AGRICOLA    ,1.0,1.0,11.0,127.33824920654297,0.9227409362792969,-9.750875473022461,-0.17018482089042664,0.949999988079071,1.0499999523162842,True
LT_104-109_A8,True,105.0,AIKEN       ,1.0,1.0,11.0,131.7546844482422,0.9547441005706787,-9.810056686401367,-0.17121772468090057,0.949999988079071,1.0499999523162842,False
LT_104-109_A8,True,106.0,ALBER       ,1.0,1.0,12.0,131.66207885742188,0.9540730118751526,-13.538652420043945,-0.2362939715385437,0.949999988079071,1.0499999523162842,False
LT_104-109_A8,True,107.0,ALDER       ,2.0,1.0,12.0,133.08306884765625,0.9643700122833252,-11.443775177001953,-0.1997314840555191,0.949999988079071,1.0499999523162842,False
LT_104-109_A8,True,108.0,ALGER       ,1.0,1.0,12.0,129.44668579101562,0.9380195140838623,-14.699634552001953,-0.2565569281578064,0.949999988079071,1.0499999523162842,True
LT_104-109_A8,True,109.0,ALI         ,1.0,1.0,13.0,131.0316162109375,0.9495044946670532,-11.712204933166504,-0.20441646873950958,0.949999988079071,1.0499999523162842,True
LT_104-109_A8,True,110.0,ALLEN       ,1.0,1.0,13.0,134.34432983398438,0.9735096096992493,-11.88512134552002,-0.20743443071842194,0.949999988079071,1.0499999523162842,False
LT_104-109_A8,True,111.0,ANNA        ,1.0,1.0,13.0,221.51382446289062,0.9631035923957825,-7.539306163787842,-0.13158567249774933,0.949999988079071,1.0499999523162842,False
LT_104-109_A8,True,112.0,ARCHER      ,1.0,1.0,13.0,225.08836364746094,0.9786450266838074,-5.232882022857666,-0.09133099019527435,0.949999988079071,1.0499999523162842,False
LT_104-109_A8,True,113.0,ARNE        ,3.0,1.0,14.0,225.62770080566406,0.9809899926185608,0.0,0.0,0.949999988079071,1.0499999523162842,False
LT_104-109_A8,True,114.0,ARNOLD      ,2.0,1.0,16.0,221.64430236816406,0.9636709094047546,-9.97468376159668,-0.17409101128578186,0.949999988079071,1.0499999523162842,False
LT_104-109_A8,True,115.0,ARTHUR      ,2.0,1.0,16.0,226.8052978515625,0.9861099720001221,-8.530362129211426,-0.14888285100460052,0.949999988079071,1.0499999523162842,False
LT_104-109_A8,True,116.0,ASSER       ,2.0,1.0,16.0,228.32791137695312,0.9927300214767456,-7.492898464202881,-0.13077570497989655,0.949999988079071,1.0499999523162842,False
LT_104-109_A8,True,117.0,ASTON       ,1.0,1.0,17.0,227.10403442382812,0.9874088168144226,-7.342822074890137,-0.128156378865242,0.949999988079071,1.0499999523162842,False
LT_104-109_A8,True,118.0,ASTOR       ,2.0,1.0,17.0,225.7396240234375,0.9814766049385071,-7.330606460571289,-0.12794317305088043,0.949999988079071,1.0499999523162842,False
LT_104-109_A8,True,119.0,ATTAR       ,1.0,1.0,15.0,232.1352081298828,1.0092835426330566,-6.21687126159668,-0.10850483924150467,0.949999988079071,1.0499999523162842,False
LT_104-109_A8,True,120.0,ATTILA      ,1.0,1.0,15.0,237.56446838378906,1.0328890085220337,-3.474118232727051,-0.060634780675172806,0.949999988079071,1.0499999523162842,False
LT_104-109_A8,True,121.0,ATTLEE      ,2.0,1.0,17.0,226.3843994140625,0.984279990196228,-7.461577892303467,-0.13022905588150024,0.949999988079071,1.0499999523162842,False
LT_104-109_A8,True,122.0,AUBREY      ,2.0,1.0,17.0,228.78799438476562,0.9947304129600525,-6.65934944152832,-0.11622752994298935,0.949999988079071,1.0499999523162842,False
LT_104-109_A8,True,123.0,AUSTEN      ,2.0,1.0,15.0,241.49998474121094,1.0499999523162842,-1.4015511274337769,-0.024461673572659492,0.949999988079071,1.0499999523162842,False
LT_104-109_A8,True,124.0,AVERY       ,1.0,1.0,16.0,221.81983947753906,0.9644340872764587,-10.367060661315918,-0.18093928694725037,0.949999988079071,1.0499999523162842,False
LT_104-109_A8,True,201.0,BACH        ,2.0,2.0,21.0,131.64234924316406,0.9539300203323364,-36.68033981323242,-0.6401925086975098,0.949999988079071,1.0499999523162842,False
LT_104-109_A8,True,202.0,BACON       ,2.0,2.0,22.0,131.7624053955078,0.954800009727478,-36.85017013549805,-0.6431565880775452,0.949999988079071,1.0499999523162842,False
LT_104-109_A8,True,203.0,BAFFIN      ,1.0,2.0,21.0,128.640625,0.9321784973144531,-27.91892433166504,-0.48727700114250183,0.949999988079071,1.0499999523162842,True
LT_104-109_A8,True,204.0,BAILEY      ,1.0,2.0,21.0,128.8128204345703,0.9334262609481812,-39.42827606201172,-0.6881529688835144,0.949999988079071,1.0499999523162842,True
LT_104-109_A8,True,205.0,BAIN        ,1.0,2.0,21.0,131.7572784423828,0.954762876033783,-40.33309555053711,-0.7039450407028198,0.949999988079071,1.0499999523162842,False
LT_104-109_A8,True,206.0,BAJER       ,1.0,2.0,22.0,132.30203247070312,0.9587104320526123,-43.266746520996094,-0.7551469206809998,0.949999988079071,1.0499999523162842,False
LT_104-109_A8,True,207.0,BAKER       ,2.0,2.0,22.0,127.18579864501953,0.9216362237930298,-47.28191375732422,-0.825224757194519,0.949999988079071,1.0499999523162842,True
LT_104-109_A8,True,208.0,BALCH       ,1.0,2.0,22.0,125.66177368164062,0.9105925559997559,-47.09661102294922,-0.8219906687736511,0.949999988079071,1.0499999523162842,True
LT_104-109_A8,True,209.0,BALZAC      ,1.0,2.0,23.0,130.81040954589844,0.9479014873504639,-37.34926223754883,-0.6518673896789551,0.949999988079071,1.0499999523162842,True
LT_104-109_A8,True,210.0,BANKS       ,1.0,2.0,23.0,135.51077270507812,0.9819620847702026,-40.78797149658203,-0.7118841409683228,0.949999988079071,1.0499999523162842,False
LT_104-109_A8,True,211.0,BARDEEN     ,1.0,2.0,23.0,226.21133422851562,0.9835275411605835,-32.91602325439453,-0.5744928121566772,0.949999988079071,1.0499999523162842,False
LT_104-109_A8,True,212.0,BARKLA      ,1.0,2.0,23.0,229.9718017578125,0.999877393245697,-33.281864166259766,-0.5808779001235962,0.949999988079071,1.0499999523162842,False
LT_104-109_A8,True,213.0,BARLOW      ,2.0,2.0,24.0,237.2530517578125,1.031535029411316,-31.593347549438477,-0.5514077544212341,0.949999988079071,1.0499999523162842,False
LT_104-109_A8,True,214.0,BARRY       ,2.0,2.0,26.0,224.47911071777344,0.9759961366653442,-28.14555549621582,-0.4912324547767639,0.949999988079071,1.0499999523162842,False
LT_104-109_A8,True,215.0,BARTON      ,2.0,2.0,26.0,231.97235107421875,1.008575439453125,-12.621931076049805,-0.22029417753219604,0.949999988079071,1.0499999523162842,False
LT_104-109_A8,True,216.0,BASOV       ,2.0,2.0,26.0,233.2793426513672,1.0142580270767212,-15.84006404876709,-0.2764611840248108,0.949999988079071,1.0499999523162842,False
LT_104-109_A8,True,217.0,BATES       ,1.0,2.0,27.0,238.31394958496094,1.0361475944519043,-10.598658561706543,-0.18498142063617706,0.949999988079071,1.0499999523162842,False
LT_104-109_A8,True,218.0,BAYLE       ,2.0,2.0,27.0,240.69699096679688,1.0465086698532104,-9.698532104492188,-0.16927126049995422,0.949999988079071,1.0499999523162842,False
LT_104-109_A8,True,219.0,BEDE        ,1.0,2.0,25.0,234.44357299804688,1.0193198919296265,-21.083721160888672,-0.3679802417755127,0.949999988079071,1.0499999523162842,False
LT_104-109_A8,True,220.0,BEETHOVEN   ,1.0,2.0,25.0,238.54258728027344,1.0371416807174683,-23.83363151550293,-0.4159752130508423,0.949999988079071,1.0499999523162842,False
LT_104-109_A8,True,221.0,BEHRING     ,2.0,2.0,27.0,239.84629821777344,1.0428099632263184,-9.201532363891602,-0.16059698164463043,0.949999988079071,1.0499999523162842,False
LT_104-109_A8,True,222.0,BELL        ,1.0,2.0,27.0,241.03382873535156,1.0479731559753418,-9.80599308013916,-0.17114681005477905,0.949999988079071,1.0499999523162842,False
LT_104-109_A8,True,223.0,BLOCH       ,2.0,2.0,25.0,241.49998474121094,1.0499999523162842,-24.66461181640625,-0.4304785430431366,0.949999988079071,1.0499999523162842,False
LT_104-109_A8,True,224.0,BORDET      ,1.0,2.0,26.0,222.22540283203125,0.9661973714828491,-18.081153869628906,-0.31557556986808777,0.949999988079071,1.0499999523162842,False
LT_104-109_A8,True,301.0,CABELL      ,2.0,3.0,31.0,132.5862579345703,0.9607700109481812,-52.59062576293945,-0.9178792834281921,0.949999988079071,1.0499999523162842,False
LT_104-109_A8,True,302.0,CABOT       ,2.0,3.0,32.0,132.75048828125,0.9619600176811218,-52.70289993286133,-0.9198387861251831,0.949999988079071,1.0499999523162842,False
LT_104-109_A8,True,303.0,CAESAR      ,1.0,3.0,31.0,127.7356948852539,0.925620973110199,-49.9764289855957,-0.8722529411315918,0.949999988079071,1.0499999523162842,True
LT_104-109_A8,True,304.0,CAINE       ,1.0,3.0,31.0,128.5306396484375,0.9313814043998718,-54.00511169433594,-0.9425666928291321,0.949999988079071,1.0499999523162842,True
LT_104-109_A8,True,305.0,CALVIN      ,1.0,3.0,31.0,131.38742065429688,0.9520828127861023,-54.36866760253906,-0.9489119052886963,0.949999988079071,1.0499999523162842,False
LT_104-109_A8,True,306.0,CAMUS       ,1.0,3.0,32.0,131.3377685546875,0.9517229795455933,-56.18627166748047,-0.9806351065635681,0.949999988079071,1.0499999523162842,False
LT_104-109_A8,True,307.0,CAREW       ,2.0,3.0,32.0,123.3037338256836,0.893505334854126,-64.6257553100586,-1.127931833267212,0.949999988079071,1.0499999523162842,True
LT_104-109_A8,True,308.0,CARREL      ,1.0,3.0,32.0,122.68151092529297,0.8889964818954468,-62.27901840209961,-1.0869735479354858,0.949999988079071,1.0499999523162842,True
LT_104-109_A8,True,309.0,CARTER      ,1.0,3.0,33.0,128.6907958984375,0.9325419664382935,-51.516719818115234,-0.8991360664367676,0.949999988079071,1.0499999523162842,True
LT_104-109_A8,True,310.0,CARUSO      ,1.0,3.0,33.0,133.00331115722656,0.9637921452522278,-53.44933319091797,-0.9328665137290955,0.949999988079071,1.0499999523162842,False
LT_104-109_A8,True,311.0,CARY        ,1.0,3.0,33.0,219.8094024658203,0.9556930661201477,-45.94956970214844,-0.8019710183143616,0.949999988079071,1.0499999523162842,False
LT_104-109_A8,True,312.0,CAXTON      ,1.0,3.0,33.0,220.17897033691406,0.9572998881340027,-44.020931243896484,-0.7683099508285522,0.949999988079071,1.0499999523162842,False
LT_104-109_A8,True,313.0,CECIL       ,2.0,3.0,34.0,229.1282958984375,0.996209979057312,-41.15043640136719,-0.7182103395462036,0.949999988079071,1.0499999523162842,False
LT_104-109_A8,True,314.0,CHAIN       ,2.0,3.0,36.0,217.2981414794922,0.9447745084762573,-43.860233306884766,-0.7655051946640015,0.949999988079071,1.0499999523162842,True
LT_104-109_A8,True,315.0,CHASE       ,2.0,3.0,36.0,221.36048889160156,0.9624369144439697,-35.46746826171875,-0.619023859500885,0.949999988079071,1.0499999523162842,False
LT_104-109_A8,True,316.0,CHIFA       ,2.0,3.0,36.0,220.6182861328125,0.9592099189758301,-35.69053268432617,-0.622917115688324,0.949999988079071,1.0499999523162842,False
LT_104-109_A8,True,317.0,CHUHSI      ,1.0,3.0,37.0,221.90386962890625,0.9647994637489319,-33.07981491088867,-0.5773515105247498,0.949999988079071,1.0499999523162842,False
LT_104-109_A8,True,318.0,CLARK       ,2.0,3.0,37.0,222.44679260253906,0.9671599864959717,-32.04747009277344,-0.5593336820602417,0.949999988079071,1.0499999523162842,False
LT_104-109_A8,True,319.0,CLAY        ,1.0,3.0,35.0,220.16600036621094,0.9572435021400452,-34.99275588989258,-0.6107385754585266,0.949999988079071,1.0499999523162842,False
LT_104-109_A8,True,320.0,CLIVE       ,1.0,3.0,35.0,221.57830810546875,0.9633839726448059,-32.760677337646484,-0.5717814564704895,0.949999988079071,1.0499999523162842,False
LT_104-109_A8,True,321.0,COBB        ,2.0,3.0,37.0,222.63999938964844,0.9679999947547913,-31.54362678527832,-0.5505399703979492,0.949999988079071,1.0499999523162842,False
LT_104-109_A8,True,322.0,COLE        ,2.0,3.0,37.0,221.943115234375,0.964970052242279,-30.244354248046875,-0.5278633832931519,0.949999988079071,1.0499999523162842,False
LT_104-109_A8,True,323.0,COMTE       ,2.0,3.0,35.0,223.14138793945312,0.9701799750328064,-30.921520233154297,-0.539682149887085,0.949999988079071,1.0499999523162842,False
LT_104-109_A8,True,324.0,CURIE       ,1.0,3.0,36.0,215.42938232421875,0.9366495013237,-40.83648681640625,-0.712730884552002,0.949999988079071,1.0499999523162842,True
LT_104-109_A8,True,325.0,CURTISS     ,1.0,3.0,35.0,221.2985382080078,0.9621675610542297,-29.00193214416504,-0.5061790347099304,0.949999988079071,1.0499999523162842,False
LT_105-110_A9,True,101.0,ABEL        ,2.0,1.0,11.0,132.99197387695312,0.9637100100517273,-3.327575922012329,-0.0580771341919899,0.949999988079071,1.0499999523162842,False
LT_105-110_A9,True,102.0,ADAMS       ,2.0,1.0,12.0,133.11204528808594,0.9645799994468689,-3.669335126876831,-0.06404195725917816,0.949999988079071,1.0499999523162842,False
LT_105-110_A9,True,103.0,ADLER       ,1.0,1.0,11.0,128.54800415039062,0.9315072298049927,-13.199132919311523,-0.2303682416677475,0.949999988079071,1.0499999523162842,True
LT_105-110_A9,True,104.0,AGRICOLA    ,1.0,1.0,11.0,129.13558959960938,0.9357651472091675,-10.092588424682617,-0.17614883184432983,0.949999988079071,1.0499999523162842,True
LT_105-110_A9,True,105.0,AIKEN       ,1.0,1.0,11.0,129.46253967285156,0.9381343126296997,-6.44465446472168,-0.11248040199279785,0.949999988079071,1.0499999523162842,True
LT_105-110_A9,True,106.0,ALBER       ,1.0,1.0,12.0,132.4584503173828,0.9598438739776611,-13.601164817810059,-0.23738503456115723,0.949999988079071,1.0499999523162842,False
LT_105-110_A9,True,107.0,ALDER       ,2.0,1.0,12.0,133.0830535888672,0.9643699526786804,-11.439783096313477,-0.19966180622577667,0.949999988079071,1.0499999523162842,False
LT_105-110_A9,True,108.0,ALGER       ,1.0,1.0,12.0,129.61753845214844,0.9392575621604919,-14.71793270111084,-0.25687628984451294,0.949999988079071,1.0499999523162842,True
LT_105-110_A9,True,109.0,ALI         ,1.0,1.0,13.0,130.6658935546875,0.946854293346405,-11.363592147827148,-0.1983320266008377,0.949999988079071,1.0499999523162842,True
LT_105-110_A9,True,110.0,ALLEN       ,1.0,1.0,13.0,135.49803161621094,0.9818697571754456,-12.350393295288086,-0.21555495262145996,0.949999988079071,1.0499999523162842,False
LT_105-110_A9,True,111.0,ANNA        ,1.0,1.0,13.0,221.78416442871094,0.9642789959907532,-7.558825492858887,-0.13192634284496307,0.949999988079071,1.0499999523162842,False
LT_105-110_A9,True,112.0,ARCHER      ,1.0,1.0,13.0,225.34548950195312,0.9797629714012146,-5.266329288482666,-0.09191475063562393,0.949999988079071,1.0499999523162842,False
LT_105-110_A9,True,113.0,ARNE        ,3.0,1.0,14.0,225.62770080566406,0.9809899926185608,0.0,0.0,0.949999988079071,1.0499999523162842,False
LT_105-110_A9,True,114.0,ARNOLD      ,2.0,1.0,16.0,221.8085479736328,0.9643849730491638,-9.941097259521484,-0.1735048145055771,0.949999988079071,1.0499999523162842,False
LT_105-110_A9,True,115.0,ARTHUR      ,2.0,1.0,16.0,226.80528259277344,0.9861099123954773,-8.40251636505127,-0.1466515213251114,0.949999988079071,1.0499999523162842,False
LT_105-110_A9,True,116.0,ASSER       ,2.0,1.0,16.0,228.32789611816406,0.9927299618721008,-7.396787643432617,-0.12909825146198273,0.949999988079071,1.0499999523162842,False
LT_105-110_A9,True,117.0,ASTON       ,1.0,1.0,17.0,227.10374450683594,0.9874075651168823,-7.238106727600098,-0.1263287514448166,0.949999988079071,1.0499999523162842,False
LT_105-110_A9,True,118.0,ASTOR       ,2.0,1.0,17.0,225.7397003173828,0.9814769625663757,-7.221830368041992,-0.12604467570781708,0.949999988079071,1.0499999523162842,False
LT_105-110_A9,True,119.0,ATTAR       ,1.0,1.0,15.0,232.14129638671875,1.009310007095337,-6.147778034210205,-0.10729893296957016,0.949999988079071,1.0499999523162842,False
LT_105-110_A9,True,120.0,ATTILA      ,1.0,1.0,15.0,237.56973266601562,1.0329118967056274,-3.427708864212036,-0.059824783354997635,0.949999988079071,1.0499999523162842,False
LT_105-110_A9,True,121.0,ATTLEE      ,2.0,1.0,17.0,226.38441467285156,0.9842800498008728,-7.349033355712891,-0.12826478481292725,0.949999988079071,1.0499999523162842,False
LT_105-110_A9,True,122.0,AUBREY      ,2.0,1.0,17.0,228.78790283203125,0.9947299957275391,-6.549887180328369,-0.11431705951690674,0.949999988079071,1.0499999523162842,False
LT_105-110_A9,True,123.0,AUSTEN      ,2.0,1.0,15.0,241.49998474121094,1.0499999523162842,-1.3671129941940308,-0.023860614746809006,0.949999988079071,1.0499999523162842,False
LT_105-110_A9,True,124.0,AVERY       ,1.0,1.0,16.0,221.71253967285156,0.9639675617218018,-10.103528022766113,-0.1763397753238678,0.949999988079071,1.0499999523162842,False
LT_105-110_A9,True,201.0,BACH        ,2.0,2.0,21.0,131.64234924316406,0.9539300203323364,-36.65116500854492,-0.6396833062171936,0.949999988079071,1.0499999523162842,False
LT_105-110_A9,True,202.0,BACON       ,2.0,2.0,22.0,131.7624053955078,0.954800009727478,-36.820831298828125,-0.6426445245742798,0.949999988079071,1.0499999523162842,False
LT_105-110_A9,True,203.0,BAFFIN      ,1.0,2.0,21.0,128.64695739746094,0.9322243332862854,-27.896574020385742,-0.4868868887424469,0.949999988079071,1.0499999523162842,True
LT_105-110_A9,True,204.0,BAILEY      ,1.0,2.0,21.0,128.8148193359375,0.9334407448768616,-39.3985710144043,-0.6876345276832581,0.949999988079071,1.0499999523162842,True
LT_105-110_A9,True,205.0,BAIN        ,1.0,2.0,21.0,131.75814819335938,0.9547691345214844,-40.302955627441406,-0.703419029712677,0.949999988079071,1.0499999523162842,False
LT_105-110_A9,True,206.0,BAJER       ,1.0,2.0,22.0,132.30335998535156,0.9587200284004211,-43.23601531982422,-0.754610538482666,0.949999988079071,1.0499999523162842,False
LT_105-110_A9,True,207.0,BAKER       ,2.0,2.0,22.0,127.18861389160156,0.921656608581543,-47.251060485839844,-0.8246862888336182,0.949999988079071,1.0499999523162842,True
LT_105-110_A9,True,208.0,BALCH       ,1.0,2.0,22.0,125.66462707519531,0.9106132388114929,-47.065765380859375,-0.821452260017395,0.949999988079071,1.0499999523162842,True
LT_105-110_A9,True,209.0,BALZAC      ,1.0,2.0,23.0,130.81394958496094,0.9479271769523621,-37.31938171386719,-0.6513458490371704,0.949999988079071,1.0499999523162842,True
LT_105-110_A9,True,210.0,BANKS       ,1.0,2.0,23.0,135.51234436035156,0.9819734692573547,-40.75688171386719,-0.7113415598869324,0.949999988079071,1.0499999523162842,False
LT_105-110_A9,True,211.0,BARDEEN     ,1.0,2.0,23.0,226.21505737304688,0.9835437536239624,-32.8851318359375,-0.5739536285400391,0.949999988079071,1.0499999523162842,False
LT_105-110_A9,True,212.0,BARKLA      ,1.0,2.0,23.0,229.97300720214844,0.9998826384544373,-33.249332427978516,-0.5803101062774658,0.949999988079071,1.0499999523162842,False
LT_105-110_A9,True,213.0,BARLOW      ,2.0,2.0,24.0,237.25445556640625,1.031541109085083,-31.560531616210938,-0.5508350133895874,0.949999988079071,1.0499999523162842,False
LT_105-110_A9,True,214.0,BARRY       ,2.0,2.0,26.0,224.48443603515625,0.9760192632675171,-28.116060256958008,-0.49071764945983887,0.949999988079071,1.0499999523162842,False
LT_105-110_A9,True,215.0,BARTON      ,2.0,2.0,26.0,231.97802734375,1.008600115776062,-12.59843635559082,-0.21988412737846375,0.949999988079071,1.0499999523162842,False
LT_105-110_A9,True,216.0,BASOV       ,2.0,2.0,26.0,233.2845001220703,1.0142804384231567,-15.812789916992188,-0.27598515152931213,0.949999988079071,1.0499999523162842,False
LT_105-110_A9,True,217.0,BATES       ,1.0,2.0,27.0,238.31536865234375,1.036153793334961,-10.571167945861816,-0.18450161814689636,0.949999988079071,1.0499999523162842,False
LT_105-110_A9,True,218.0,BAYLE       ,2.0,2.0,27.0,240.6976776123047,1.0465116500854492,-9.672011375427246,-0.16880838572978973,0.949999988079071,1.0499999523162842,False
LT_105-110_A9,True,219.0,BEDE        ,1.0,2.0,25.0,234.4481201171875,1.019339680671692,-21.052284240722656,-0.36743155121803284,0.949999988079071,1.0499999523162842,False
LT_105-110_A9,True,220.0,BEETHOVEN   ,1.0,2.0,25.0,238.54444885253906,1.0371497869491577,-23.798782348632812,-0.4153669774532318,0.949999988079071,1.0499999523162842,False
LT_105-110_A9,True,221.0,BEHRING     ,2.0,2.0,27.0,239.84629821777344,1.0428099632263184,-9.175904273986816,-0.1601496785879135,0.949999988079071,1.0499999523162842,False
LT_105-110_A9,True,222.0,BELL        ,1.0,2.0,27.0,241.03445434570312,1.0479758977890015,-9.779637336730957,-0.17068681120872498,0.949999988079071,1.0499999523162842,False
LT_105-110_A9,True,223.0,BLOCH       ,2.0,2.0,25.0,241.49998474121094,1.0499999523162842,-24.62796401977539,-0.4298389256000519,0.949999988079071,1.0499999523162842,False
LT_105-110_A9,True,224.0,BORDET      ,1.0,2.0,26.0,222.23243713378906,0.9662280082702637,-18.058197021484375,-0.3151748776435852,0.949999988079071,1.0499999523162842,False
LT_105-110_A9,True,301.0,CABELL      ,2.0,3.0,31.0,132.5862579345703,0.9607700109481812,-52.51639938354492,-0.916583776473999,0.949999988079071,1.0499999523162842,False
LT_105-110_A9,True,302.0,CABOT       ,2.0,3.0,32.0,132.75048828125,0.9619600176811218,-52.62860870361328,-0.918542206287384,0.949999988079071,1.0499999523162842,False
LT_105-110_A9,True,303.0,CAESAR      ,1.0,3.0,31.0,127.73623657226562,0.9256249070167542,-49.90434646606445,-0.8709948658943176,0.949999988079071,1.0499999523162842,True
LT_105-110_A9,True,304.0,CAINE       ,1.0,3.0,31.0,128.53065490722656,0.9313815832138062,-53.93062973022461,-0.9412667155265808,0.949999988079071,1.0499999523162842,True
LT_105-110_A9,True,305.0,CALVIN      ,1.0,3.0,31.0,131.3873291015625,0.952082097530365,-54.29402160644531,-0.9476091265678406,0.949999988079071,1.0499999523162842,False
LT_105-110_A9,True,306.0,CAMUS       ,1.0,3.0,32.0,131.33761596679688,0.9517218470573425,-56.11138916015625,-0.9793281555175781,0.949999988079071,1.0499999523162842,False
LT_105-110_A9,True,307.0,CAREW       ,2.0,3.0,32.0,123.30367279052734,0.8935048580169678,-64.5509033203125,-1.126625418663025,0.949999988079071,1.0499999523162842,True
LT_105-110_A9,True,308.0,CARREL      ,1.0,3.0,32.0,122.68144226074219,0.8889959454536438,-62.204166412353516,-1.0856671333312988,0.949999988079071,1.0499999523162842,True
LT_105-110_A9,True,309.0,CARTER      ,1.0,3.0,33.0,128.69085693359375,0.9325424432754517,-51.44207763671875,-0.8978333473205566,0.949999988079071,1.0499999523162842,True
LT_105-110_A9,True,310.0,CARUSO      ,1.0,3.0,33.0,133.0030975341797,0.9637905955314636,-53.3742561340332,-0.9315561652183533,0.949999988079071,1.0499999523162842,False
LT_105-110_A9,True,311.0,CARY        ,1.0,3.0,33.0,219.8096466064453,0.9556941390037537,-45.87504577636719,-0.800670325756073,0.949999988079071,1.0499999523162842,False
LT_105-110_A9,True,312.0,CAXTON      ,1.0,3.0,33.0,220.17770385742188,0.9572943449020386,-43.94451141357422,-0.7669761180877686,0.949999988079071,1.0499999523162842,False
LT_105-110_A9,True,313.0,CECIL       ,2.0,3.0,34.0,229.1282958984375,0.996209979057312,-41.07401657104492,-0.7168765664100647,0.949999988079071,1.0499999523162842,False
LT_105-110_A9,True,314.0,CHAIN       ,2.0,3.0,36.0,217.29898071289062,0.9447781443595886,-43.787803649902344,-0.764241099357605,0.949999988079071,1.0499999523162842,True
LT_105-110_A9,True,315.0,CHASE       ,2.0,3.0,36.0,221.3612060546875,0.962440013885498,-35.399566650390625,-0.6178387999534607,0.949999988079071,1.0499999523162842,False
LT_105-110_A9,True,316.0,CHIFA       ,2.0,3.0,36.0,220.61830139160156,0.9592099785804749,-35.621070861816406,-0.6217047572135925,0.949999988079071,1.0499999523162842,False
LT_105-110_A9,True,317.0,CHUHSI      ,1.0,3.0,37.0,221.9043426513672,0.9648014903068542,-33.01434326171875,-0.576208770275116,0.949999988079071,1.0499999523162842,False
LT_105-110_A9,True,318.0,CLARK       ,2.0,3.0,37.0,222.44679260253906,0.9671599864959717,-31.984088897705078,-0.5582274794578552,0.949999988079071,1.0499999523162842,False
LT_105-110_A9,True,319.0,CLAY        ,1.0,3.0,35.0,220.16525268554688,0.9572402238845825,-34.91878890991211,-0.6094475984573364,0.949999988079071,1.0499999523162842,False
LT_105-110_A9,True,320.0,CLIVE       ,1.0,3.0,35.0,221.57762145996094,0.9633809924125671,-32.68279266357422,-0.5704221129417419,0.949999988079071,1.0499999523162842,False
LT_105-110_A9,True,321.0,COBB        ,2.0,3.0,37.0,222.63999938964844,0.9679999947547913,-31.478652954101562,-0.5494059324264526,0.949999988079071,1.0499999523162842,False
LT_105-110_A9,True,322.0,COLE        ,2.0,3.0,37.0,221.94309997558594,0.9649699926376343,-30.17917823791504,-0.5267258286476135,0.949999988079071,1.0499999523162842,False
LT_105-110_A9,True,323.0,COMTE       ,2.0,3.0,35.0,223.14138793945312,0.9701799750328064,-30.841506958007812,-0.5382856726646423,0.949999988079071,1.0499999523162842,False
LT_105-110_A9,True,324.0,CURIE       ,1.0,3.0,36.0,215.4315185546875,0.9366587996482849,-40.76703643798828,-0.7115187644958496,0.949999988079071,1.0499999523162842,True
LT_105-110_A9,True,325.0,CURTISS     ,1.0,3.0,35.0,221.29344177246094,0.9621453881263733,-28.919445037841797,-0.5047393441200256,0.949999988079071,1.0499999523162842,False
LT_106-110_10,True,101.0,ABEL        ,2.0,1.0,11.0,127.4286880493164,0.9233962893486023,-7.942858695983887,-0.1386289894580841,0.949999988079071,1.0499999523162842,True
LT_106-110_10,True,102.0,ADAMS       ,2.0,1.0,12.0,125.61259460449219,0.9102361798286438,-8.37956428527832,-0.14625093340873718,0.949999988079071,1.0499999523162842,True
LT_106-110_10,True,103.0,ADLER       ,1.0,1.0,11.0,126.43888854980469,0.9162238240242004,-15.141026496887207,-0.2642606794834137,0.949999988079071,1.0499999523162842,True
LT_106-110_10,True,104.0,AGRICOLA    ,1.0,1.0,11.0,124.46658325195312,0.9019317626953125,-13.029173851013184,-0.22740189731121063,0.949999988079071,1.0499999523162842,True
LT_106-110_10,True,105.0,AIKEN       ,1.0,1.0,11.0,126.05641174316406,0.9134522676467896,-11.537705421447754,-0.20137088000774384,0.949999988079071,1.0499999523162842,True
...